16

C -0.77045805 0.62804217 -1.07210124
C 0.77079125 0.62816731 -1.07236618
H -1.14659907 1.62552023 -1.36238424
H 1.14587672 1.62594456 -1.36289399
H 1.13132840 -0.06991460 -1.85234831
H -1.13175991 -0.06993741 -1.85189801
C 0.66926685 -0.94038658 0.86898331
C 1.39545434 0.22438837 0.27699636
H 1.26932417 -1.74311714 1.27681936
H 2.47093306 0.00694238 0.14090232
H 1.34541918 1.08232271 0.98081494
C -0.66794920 -0.94026058 0.86962794
C -1.39516279 0.22369104 0.27705552
H -1.26845841 -1.74275816 1.27744645
H -2.47041170 0.00458545 0.14004219
H -1.34801908 1.08170794 0.98090861
